                                  MODFLOW-2005     
      U.S. GEOLOGICAL SURVEY MODULAR FINITE-DIFFERENCE GROUND-WATER FLOW MODEL
                            VERSION 1.12.00 2/3/2017

 LIST FILE: SUB-Yulin-5.list
                         UNIT    2

 OPENING SUB-Yulin-5.dis
 FILE TYPE:DIS   UNIT   11   STATUS:OLD    
 FORMAT:FORMATTED              ACCESS:SEQUENTIAL          

 OPENING SUB-Yulin-5.bas
 FILE TYPE:BAS6   UNIT   13   STATUS:OLD    
 FORMAT:FORMATTED              ACCESS:SEQUENTIAL          

 OPENING SUB-Yulin-5.bcf
 FILE TYPE:BCF6   UNIT   15   STATUS:OLD    
 FORMAT:FORMATTED              ACCESS:SEQUENTIAL          

 OPENING SUB-Yulin-5.wel
 FILE TYPE:WEL   UNIT   20   STATUS:OLD    
 FORMAT:FORMATTED              ACCESS:SEQUENTIAL          

 OPENING SUB-Yulin-5.rch
 FILE TYPE:RCH   UNIT   19   STATUS:OLD    
 FORMAT:FORMATTED              ACCESS:SEQUENTIAL          

 OPENING SUB-Yulin-5.sub
 FILE TYPE:SUB   UNIT   32   STATUS:OLD    
 FORMAT:FORMATTED              ACCESS:SEQUENTIAL          

 OPENING SUB-Yulin-5.sip
 FILE TYPE:SIP   UNIT   25   STATUS:OLD    
 FORMAT:FORMATTED              ACCESS:SEQUENTIAL          

 OPENING SUB-Yulin-5.oc
 FILE TYPE:OC   UNIT   14   STATUS:OLD    
 FORMAT:FORMATTED              ACCESS:SEQUENTIAL          

 OPENING SUB-Yulin-5.subsidence.hds
 FILE TYPE:DATA(BINARY)   UNIT   41   STATUS:REPLACE
 FORMAT:BINARY                 ACCESS:SEQUENTIAL          

 OPENING SUB-Yulin-5.total_comp.hds
 FILE TYPE:DATA(BINARY)   UNIT   42   STATUS:REPLACE
 FORMAT:BINARY                 ACCESS:SEQUENTIAL          

 OPENING SUB-Yulin-5.nodelay_precon.hds
 FILE TYPE:DATA(BINARY)   UNIT   43   STATUS:REPLACE
 FORMAT:BINARY                 ACCESS:SEQUENTIAL          

 OPENING SUB-Yulin-5.hds
 FILE TYPE:DATA(BINARY)   UNIT   51   STATUS:REPLACE
 FORMAT:BINARY                 ACCESS:SEQUENTIAL          

 OPENING SUB-Yulin-5.ddn
 FILE TYPE:DATA(BINARY)   UNIT   52   STATUS:REPLACE
 FORMAT:BINARY                 ACCESS:SEQUENTIAL          

 BAS -- BASIC PACKAGE, VERSION 7, 5/2/2005 INPUT READ FROM UNIT   13
 
 MODFLOW was compiled using mixed precision
 Precision of REAL variables:           6
 Precision of DOUBLE PRECISION variables:          15

 DISCRETIZATION INPUT DATA READ FROM UNIT   11
 # DIS package for MODFLOW-2005 generated by Flopy 3.6.0
    3 LAYERS         1 ROWS       100 COLUMNS
   11 STRESS PERIOD(S) IN SIMULATION
 MODEL TIME UNIT IS DAYS
 MODEL LENGTH UNIT IS UNDEFINED
  Confining bed flag for each layer:
   0   0   0

                     DELR =   250.000    

                     DELC =   20.0000    

 TOP ELEVATION OF LAYER 1 =   0.00000    



             MODEL LAYER BOTTOM EL. FOR LAYER   1
 READING ON UNIT   11 WITH FORMAT: (100E15.6)          



             MODEL LAYER BOTTOM EL. FOR LAYER   2
 READING ON UNIT   11 WITH FORMAT: (100E15.6)          



             MODEL LAYER BOTTOM EL. FOR LAYER   3
 READING ON UNIT   11 WITH FORMAT: (100E15.6)          


 STRESS PERIOD     LENGTH       TIME STEPS     MULTIPLIER FOR DELT    SS FLAG
 ----------------------------------------------------------------------------
        1         1.000000          1                    1.000         SS
        2         365.3000          6                    1.300         TR
        3         365.3000          6                    1.300         TR
        4         365.3000          6                    1.300         TR
        5         365.3000          6                    1.300         TR
        6         365.3000          6                    1.300         TR
        7         365.3000          6                    1.300         TR
        8         365.3000          6                    1.300         TR
        9         365.3000          6                    1.300         TR
       10         365.3000          6                    1.300         TR
       11         365.3000          6                    1.300         TR

 COMBINED STEADY-STATE AND TRANSIENT SIMULATION



 
 # BAS6 package for MODFLOW-2005 generated by Flopy 3.6.0                        
 THE FREE FORMAT OPTION HAS BEEN SELECTED



                     BOUNDARY ARRAY FOR LAYER   1
 READING ON UNIT   13 WITH FORMAT: (100I10)            



                     BOUNDARY ARRAY FOR LAYER   2
 READING ON UNIT   13 WITH FORMAT: (100I10)            



                     BOUNDARY ARRAY FOR LAYER   3
 READING ON UNIT   13 WITH FORMAT: (100I10)            

 AQUIFER HEAD WILL BE SET TO  -999.99     AT ALL NO-FLOW NODES (IBOUND=0).



                       INITIAL HEAD FOR LAYER   1
 READING ON UNIT   13 WITH FORMAT: (100E15.6)          



                       INITIAL HEAD FOR LAYER   2
 READING ON UNIT   13 WITH FORMAT: (100E15.6)          



                       INITIAL HEAD FOR LAYER   3
 READING ON UNIT   13 WITH FORMAT: (100E15.6)          
 # OC package for MODFLOW-2005 generated by Flopy 3.6.0

 OUTPUT CONTROL IS SPECIFIED ONLY AT TIME STEPS FOR WHICH OUTPUT IS DESIRED
 COMPACT CELL-BY-CELL BUDGET FILES WILL BE WRITTEN
 AUXILIARY DATA WILL BE SAVED IN CELL-BY-CELL BUDGET FILES
 HEAD PRINT FORMAT CODE IS   0    DRAWDOWN PRINT FORMAT CODE IS   0
 HEADS WILL BE SAVED ON UNIT   51    DRAWDOWNS WILL BE SAVED ON UNIT   52

 BCF -- BLOCK-CENTERED FLOW PACKAGE, VERSION 7, 5/2/2005
         INPUT READ FROM UNIT 15
 TRANSIENT SIMULATION
 HEAD AT CELLS THAT CONVERT TO DRY=   0.0000    
 WETTING CAPABILITY IS NOT ACTIVE
      LAYER  LAYER-TYPE CODE     INTERBLOCK T
      --------------------------------------------
         1            1          0 -- HARMONIC    
         2            0          0 -- HARMONIC    
         3            0          0 -- HARMONIC    

 COLUMN TO ROW ANISOTROPY =   1.00000    

     PRIMARY STORAGE COEF =  7.700000E-03 FOR LAYER   1

    HYD. COND. ALONG ROWS =   7.34000     FOR LAYER   1

 VERT HYD COND /THICKNESS =  3.000000E-06 FOR LAYER   1

     PRIMARY STORAGE COEF =  6.560000E-05 FOR LAYER   2



               TRANSMIS. ALONG ROWS FOR LAYER   2
 READING ON UNIT   15 WITH FORMAT: (100E15.6)          

 VERT HYD COND /THICKNESS =  3.000000E-06 FOR LAYER   2

     PRIMARY STORAGE COEF =  2.620000E-04 FOR LAYER   3



               TRANSMIS. ALONG ROWS FOR LAYER   3
 READING ON UNIT   15 WITH FORMAT: (100E15.6)          

 WEL -- WELL PACKAGE, VERSION 7, 5/2/2005 INPUT READ FROM UNIT   20
 # WEL package for MODFLOW-2005 generated by Flopy 3.6.0
 No named parameters
 MAXIMUM OF      1 ACTIVE WELLS AT ONE TIME


     0 Well parameters

 RCH -- RECHARGE PACKAGE, VERSION 7, 5/2/2005 INPUT READ FROM UNIT   19
 # RCH package for MODFLOW-2005 generated by Flopy 3.6.0
 No named parameters
 OPTION 1 -- RECHARGE TO TOP LAYER


     0 Recharge parameters

SUB7 -- SUBSIDENCE PACKAGE, VERSION 7, 03/31/2006 INPUT READ FROM UNIT 32
 # SUB package for MODFLOW-2005 generated by Flopy 3.6.0

         NUMBER OF SYSTEMS OF NO-DELAYED INTERBEDS:  3
              NUMBER OF SYSTEMS OF DELAY INTERBEDS:  2
                          NUMBER OF MATERIAL ZONES:  1
                    NUMBER OF NODES IN EACH STRING: 20
 RESTART INFORMATION WILL NOT BE SAVED FOR DELAY INTERBEDS
 RESTART INFORMATION WILL NOT BE READ FOR DELAY INTERBEDS
 OUTPUT CONTROL RECORDS FOR SUB PACKAGE WILL BE READ.

 MODEL LAYER ASSIGNMENTS FOR EACH OF  3 NO-DELAY SYSTEMS OF INTERBEDS:
    1   2   3

 MODEL LAYER ASSIGNMENTS FOR EACH OF  2 DELAY SYSTEMS OF INTERBEDS:
    1   3

  SYSTEM   1 OF DELAY BEDS:

 NUMBER OF BEDS IN SYSTEM =   7.63500     FOR LAYER   1

  SYSTEM   2 OF DELAY BEDS:

 NUMBER OF BEDS IN SYSTEM =   17.7180     FOR LAYER   3

  SYSTEM   1 OF NO-DELAY BEDS:

    PRECONSOLIDATION HEAD =  -7.00000     FOR LAYER   1

  SYSTEM   1 OF NO-DELAY BEDS:

 ELASTIC INTERBED STORAGE =  2.100000E-04 FOR LAYER   1

  SYSTEM   1 OF NO-DELAY BEDS:



            VIRGIN INTERBED STORAGE FOR LAYER   1
 READING ON UNIT   32 WITH FORMAT: (100E15.6)          

  SYSTEM   1 OF NO-DELAY BEDS:

      STARTING COMPACTION =   0.00000     FOR LAYER   1

  SYSTEM   2 OF NO-DELAY BEDS:

    PRECONSOLIDATION HEAD =  -7.00000     FOR LAYER   2

  SYSTEM   2 OF NO-DELAY BEDS:

 ELASTIC INTERBED STORAGE =  1.500000E-04 FOR LAYER   2

  SYSTEM   2 OF NO-DELAY BEDS:



            VIRGIN INTERBED STORAGE FOR LAYER   2
 READING ON UNIT   32 WITH FORMAT: (100E15.6)          

  SYSTEM   2 OF NO-DELAY BEDS:

      STARTING COMPACTION =   0.00000     FOR LAYER   2

  SYSTEM   3 OF NO-DELAY BEDS:

    PRECONSOLIDATION HEAD =  -7.00000     FOR LAYER   3

  SYSTEM   3 OF NO-DELAY BEDS:

 ELASTIC INTERBED STORAGE =  4.200000E-04 FOR LAYER   3

  SYSTEM   3 OF NO-DELAY BEDS:



            VIRGIN INTERBED STORAGE FOR LAYER   3
 READING ON UNIT   32 WITH FORMAT: (100E15.6)          

  SYSTEM   3 OF NO-DELAY BEDS:

      STARTING COMPACTION =   0.00000     FOR LAYER   3

 MATERIAL PROPERTIES OF INTERBEDS WITH DELAY PROPERTIES

   ZONE        HYDRAULIC           ELASTIC            INELASTIC       
  NUMBER      CONDUCTIVITY     SPECIFIC STORAGE    SPECIFIC STORAGE   
 ---------------------------------------------------------------------
    1        0.10000E-05         0.60000E-05         0.60000E-03

  SYSTEM   1 OF DELAY BEDS:

      DELAY STARTING HEAD =  -7.00000     FOR LAYER   1

  SYSTEM   1 OF DELAY BEDS:

    DELAY PRECOLSOL. HEAD =  -7.00000     FOR LAYER   1

  SYSTEM   1 OF DELAY BEDS:

 DELAY INITIAL COMPACTION =   0.00000     FOR LAYER   1

  SYSTEM   1 OF DELAY BEDS:

 DELAY INTERBED THICKNESS =   5.89400     FOR LAYER   1

  SYSTEM   1 OF DELAY BEDS:

    MATERIAL ZONE INDICES =              1 FOR LAYER   1

  SYSTEM   2 OF DELAY BEDS:

      DELAY STARTING HEAD =  -7.00000     FOR LAYER   3

  SYSTEM   2 OF DELAY BEDS:

    DELAY PRECOLSOL. HEAD =  -7.00000     FOR LAYER   3

  SYSTEM   2 OF DELAY BEDS:

 DELAY INITIAL COMPACTION =   0.00000     FOR LAYER   3

  SYSTEM   2 OF DELAY BEDS:

 DELAY INTERBED THICKNESS =   5.08000     FOR LAYER   3

  SYSTEM   2 OF DELAY BEDS:

    MATERIAL ZONE INDICES =              1 FOR LAYER   3

             SUBSIDENCE PRINT FORMAT IS NUMBER   0
                 UNIT FOR SAVING SUBSIDENCE IS  41
    COMPACTION BY LAYER PRINT FORMAT IS NUMBER   0
        UNIT FOR SAVING COMPACTION BY LAYER IS  42
   COMPACTION BY SYSTEM PRINT FORMAT IS NUMBER   0
       UNIT FOR SAVING COMPACTION BY SYSTEM IS  42
  VERTICAL DISPLACEMENT PRINT FORMAT IS NUMBER   0
      UNIT FOR SAVING VERTICAL DISPLACEMENT IS  41
 NO-DELAY CRITICAL HEAD PRINT FORMAT IS NUMBER   0
     UNIT FOR SAVING NO-DELAY CRITICAL HEAD IS  43
    DELAY CRITICAL HEAD PRINT FORMAT IS NUMBER   0
        UNIT FOR SAVING DELAY CRITICAL HEAD IS  43

 SIP -- STRONGLY-IMPLICIT PROCEDURE SOLUTION PACKAGE
                    VERSION 7, 5/2/2005 INPUT READ FROM UNIT   25
 # SIP package for MODFLOW-2005 generated by Flopy 3.6.0
 MAXIMUM OF 120 ITERATIONS ALLOWED FOR CLOSURE
  5 ITERATION PARAMETERS

          SOLUTION BY THE STRONGLY IMPLICIT PROCEDURE
          -------------------------------------------
 MAXIMUM ITERATIONS ALLOWED FOR CLOSURE =      120
                 ACCELERATION PARAMETER =     1.0000    
      HEAD CHANGE CRITERION FOR CLOSURE =    0.10000E-03
      SIP HEAD CHANGE PRINTOUT INTERVAL =        5

     CALCULATE ITERATION PARAMETERS FROM MODEL CALCULATED WSEED
1
                            STRESS PERIOD NO.    1, LENGTH =   1.000000    
                            -----------------------------------------------

                              NUMBER OF TIME STEPS =     1

                               MULTIPLIER FOR DELT =     1.000

                            INITIAL TIME STEP SIZE =   1.000000    

 WELL NO.  LAYER   ROW   COL   STRESS RATE         
 --------------------------------------------------
      1      1      1     50     -0.1532E+06

      1 WELL 

                 RECHARGE =  0.136800    
 
 SOLVING FOR HEAD 

 AVERAGE SEED = 0.00007194
 MINIMUM SEED = 0.00000777

     5 ITERATION PARAMETERS CALCULATED FROM AVERAGE SEED:

  0.000000E+00 0.907903E+00 0.991518E+00 0.999219E+00 0.999928E+00

 CELL CONVERSIONS FOR ITER.=  2  LAYER=  1  STEP=  1  PERIOD=  1   (ROW,COL)
    DRY(  1, 27)   DRY(  1, 28)   DRY(  1, 29)   DRY(  1, 30)   DRY(  1, 31)   
    DRY(  1, 32)   DRY(  1, 33)   DRY(  1, 34)   DRY(  1, 35)   DRY(  1, 36)   
    DRY(  1, 37)   DRY(  1, 38)   DRY(  1, 39)   DRY(  1, 40)   DRY(  1, 41)   
    DRY(  1, 42)   DRY(  1, 43)   DRY(  1, 44)   DRY(  1, 45)   DRY(  1, 46)   
    DRY(  1, 47)   DRY(  1, 48)   DRY(  1, 49)   DRY(  1, 50)   DRY(  1, 51)   
    DRY(  1, 52)   DRY(  1, 53)   DRY(  1, 54)   DRY(  1, 55)   DRY(  1, 56)   
    DRY(  1, 57)   DRY(  1, 58)   DRY(  1, 59)   DRY(  1, 60)   DRY(  1, 61)   
    DRY(  1, 62)   DRY(  1, 63)   DRY(  1, 64)   DRY(  1, 65)   DRY(  1, 66)   
    DRY(  1, 67)   DRY(  1, 68)   DRY(  1, 69)   

    31 ITERATIONS FOR TIME STEP   1 IN STRESS PERIOD    1

 MAXIMUM HEAD CHANGE FOR EACH ITERATION:

    HEAD CHANGE   HEAD CHANGE   HEAD CHANGE   HEAD CHANGE   HEAD CHANGE
  LAYER,ROW,COL LAYER,ROW,COL LAYER,ROW,COL LAYER,ROW,COL LAYER,ROW,COL
 ----------------------------------------------------------------------
     -3178.         2178.        -281.5         555.0         576.1    
  (  1,  1, 50) (  1,  1, 70) (  1,  1, 26) (  3,  1,  1) (  3,  1, 93)
     -178.8        -158.1        -190.9        -207.9        -64.87    
  (  2,  1, 73) (  3,  1,100) (  3,  1,  1) (  3,  1, 67) (  2,  1, 70)
      11.43         7.596         4.613         5.667        0.4689    
  (  2,  1,  1) (  3,  1,  1) (  2,  1, 36) (  3,  1,  1) (  3,  1,100)
    -0.1308       -0.7211E-01   -0.8769E-01   -0.6936E-01   -0.3656E-01
  (  3,  1, 73) (  2,  1, 56) (  3,  1,  1) (  3,  1, 53) (  2,  1, 71)
     0.5907E-02    0.4162E-02    0.2860E-02    0.3673E-02   -0.1127E-02
  (  2,  1,  1) (  3,  1,  1) (  2,  1, 37) (  3,  1,  1) (  3,  1, 94)
     0.3336E-03    0.2771E-03    0.3149E-03    0.3506E-03    0.1028E-03
  (  2,  1, 93) (  3,  1,100) (  3,  1,  1) (  3,  1, 68) (  2,  1, 70)
    -0.1835E-04
  (  2,  1,  1)


 OUTPUT CONTROL FOR STRESS PERIOD    1   TIME STEP    1
    SAVE HEAD FOR ALL LAYERS
    SAVE DRAWDOWN FOR ALL LAYERS
    SAVE BUDGET
    PRINT HEAD FOR ALL LAYERS
    PRINT BUDGET
1
              HEAD IN LAYER   1 AT END OF TIME STEP   1 IN STRESS PERIOD    1
  ---------------------------------------------------------------------------

            1           2           3           4           5           6           7           8           9          10
           11          12          13          14          15          16          17          18          19          20
           21          22          23          24          25          26          27          28          29          30
           31          32          33          34          35          36          37          38          39          40
           41          42          43          44          45          46          47          48          49          50
           51          52          53          54          55          56          57          58          59          60
           61          62          63          64          65          66          67          68          69          70
           71          72          73          74          75          76          77          78          79          80
           81          82          83          84          85          86          87          88          89          90
           91          92          93          94          95          96          97          98          99         100
 ........................................................................................................................
   1    10.00       31.68       52.10       71.32       89.40       106.4       122.3       137.3       151.2       164.3    
        176.4       187.6       198.0       207.6       216.3       224.3       231.4       237.8       243.5       248.4    
        252.6       256.1       258.9       260.9       262.3       263.0       0.000       0.000       0.000       0.000    
        0.000       0.000       0.000       0.000       0.000       0.000       0.000       0.000       0.000       0.000    
        0.000       0.000       0.000       0.000       0.000       0.000       0.000       0.000       0.000       0.000    
        0.000       0.000       0.000       0.000       0.000       0.000       0.000       0.000       0.000       0.000    
        0.000       0.000       0.000       0.000       0.000       0.000       0.000       0.000       0.000       294.8    
        294.2       293.0       291.2       288.8       285.9       282.3       278.2       273.4       268.1       262.2    
        255.7       248.5       240.8       232.5       223.5       213.9       203.8       192.9       181.5       169.3    
        156.6       143.1       129.0       114.2       98.68       82.45       65.48       47.77       29.28       10.00    
1
              HEAD IN LAYER   2 AT END OF TIME STEP   1 IN STRESS PERIOD    1
  ---------------------------------------------------------------------------

            1           2           3           4           5           6           7           8           9          10
           11          12          13          14          15          16          17          18          19          20
           21          22          23          24          25          26          27          28          29          30
           31          32          33          34          35          36          37          38          39          40
           41          42          43          44          45          46          47          48          49          50
           51          52          53          54          55          56          57          58          59          60
           61          62          63          64          65          66          67          68          69          70
           71          72          73          74          75          76          77          78          79          80
           81          82          83          84          85          86          87          88          89          90
           91          92          93          94          95          96          97          98          99         100
 ........................................................................................................................
   1    187.1       187.1       187.2       187.3       187.4       187.5       187.7       187.8       188.0       188.1    
        188.3       188.5       188.7       188.8       189.0       189.2       189.3       189.5       189.6       189.7    
        189.8       189.9       190.0       190.1       190.2       190.2       190.3       190.3       190.4       190.4    
        190.4       190.5       190.5       190.5       190.6       190.6       190.7       190.7       190.7       190.8    
        190.8       190.9       190.9       190.9       191.0       191.0       191.1       191.1       191.1       191.2    
        191.2       191.3       191.3       191.4       191.4       191.4       191.5       191.5       191.6       191.6    
        191.6       191.7       191.7       191.8       191.8       191.9       191.9       192.0       192.0       192.0    
        192.1       192.1       192.1       192.0       192.0       191.9       191.8       191.7       191.6       191.5    
        191.4       191.2       191.1       190.9       190.7       190.5       190.3       190.1       189.9       189.8    
        189.6       189.4       189.2       189.1       188.9       188.8       188.7       188.6       188.5       188.5    
1
              HEAD IN LAYER   3 AT END OF TIME STEP   1 IN STRESS PERIOD    1
  ---------------------------------------------------------------------------

            1           2           3           4           5           6           7           8           9          10
           11          12          13          14          15          16          17          18          19          20
           21          22          23          24          25          26          27          28          29          30
           31          32          33          34          35          36          37          38          39          40
           41          42          43          44          45          46          47          48          49          50
           51          52          53          54          55          56          57          58          59          60
           61          62          63          64          65          66          67          68          69          70
           71          72          73          74          75          76          77          78          79          80
           81          82          83          84          85          86          87          88          89          90
           91          92          93          94          95          96          97          98          99         100
 ........................................................................................................................
   1    190.1       190.1       190.1       190.1       190.1       190.1       190.1       190.1       190.1       190.1    
        190.1       190.1       190.1       190.1       190.1       190.1       190.1       190.1       190.2       190.2    
        190.2       190.2       190.2       190.2       190.2       190.2       190.2       190.2       190.2       190.2    
        190.2       190.2       190.3       190.3       190.3       190.3       190.3       190.3       190.3       190.3    
        190.3       190.3       190.3       190.3       190.3       190.3       190.3       190.3       190.4       190.4    
        190.4       190.4       190.4       190.4       190.4       190.4       190.4       190.4       190.4       190.4    
        190.4       190.4       190.4       190.4       190.4       190.4       190.4       190.4       190.4       190.4    
        190.4       190.4       190.4       190.4       190.4       190.4       190.4       190.4       190.4       190.4    
        190.4       190.4       190.4       190.4       190.4       190.4       190.4       190.4       190.4       190.4    
        190.4       190.4       190.4       190.4       190.4       190.4       190.4       190.4       190.4       190.4    

 HEAD WILL BE SAVED ON UNIT   51 AT END OF TIME STEP    1, STRESS PERIOD    1

 DRAWDOWN WILL BE SAVED ON UNIT   52 AT END OF TIME STEP    1, STRESS PERIOD    1
1
  VOLUMETRIC BUDGET FOR ENTIRE MODEL AT END OF TIME STEP    1, STRESS PERIOD   1
  ------------------------------------------------------------------------------

     CUMULATIVE VOLUMES      L**3       RATES FOR THIS TIME STEP      L**3/T
     ------------------                 ------------------------

           IN:                                      IN:
           ---                                      ---
             STORAGE =           0.0000               STORAGE =           0.0000
       CONSTANT HEAD =           0.0000         CONSTANT HEAD =           0.0000
               WELLS =           0.0000                 WELLS =           0.0000
            RECHARGE =       37620.0000              RECHARGE =       37620.0000
    INST. IB STORAGE =           0.0000      INST. IB STORAGE =           0.0000
    DELAY IB STORAGE =           0.0000      DELAY IB STORAGE =           0.0000

            TOTAL IN =       37620.0000              TOTAL IN =       37620.0000

          OUT:                                     OUT:
          ----                                     ----
             STORAGE =           0.0000               STORAGE =           0.0000
       CONSTANT HEAD =       37620.0000         CONSTANT HEAD =       37620.0000
               WELLS =           0.0000                 WELLS =           0.0000
            RECHARGE =           0.0000              RECHARGE =           0.0000
    INST. IB STORAGE =           0.0000      INST. IB STORAGE =           0.0000
    DELAY IB STORAGE =           0.0000      DELAY IB STORAGE =           0.0000

           TOTAL OUT =       37620.0000             TOTAL OUT =       37620.0000

            IN - OUT =           0.0000              IN - OUT =           0.0000

 PERCENT DISCREPANCY =           0.00     PERCENT DISCREPANCY =           0.00






         TIME SUMMARY AT END OF TIME STEP    1 IN STRESS PERIOD    1
                    SECONDS     MINUTES      HOURS       DAYS        YEARS
                    -----------------------------------------------------------
   TIME STEP LENGTH  86400.      1440.0      24.000      1.0000     2.73785E-03
 STRESS PERIOD TIME  86400.      1440.0      24.000      1.0000     2.73785E-03
         TOTAL TIME  86400.      1440.0      24.000      1.0000     2.73785E-03
1
1
                            STRESS PERIOD NO.    2, LENGTH =   365.3000    
                            -----------------------------------------------

                              NUMBER OF TIME STEPS =     6

                               MULTIPLIER FOR DELT =     1.300

                            INITIAL TIME STEP SIZE =   28.63744    

 WELL NO.  LAYER   ROW   COL   STRESS RATE         
 --------------------------------------------------
      1      1      1     50     -0.1532E+06

      1 WELL 

 REUSING RECH FROM LAST STRESS PERIOD
 
 SOLVING FOR HEAD 

     2 ITERATIONS FOR TIME STEP   1 IN STRESS PERIOD    2

 OUTPUT CONTROL FOR STRESS PERIOD    2   TIME STEP    1
    SAVE HEAD FOR ALL LAYERS
    SAVE DRAWDOWN FOR ALL LAYERS
    SAVE BUDGET
    PRINT HEAD FOR ALL LAYERS
    PRINT BUDGET
1
              HEAD IN LAYER   1 AT END OF TIME STEP   1 IN STRESS PERIOD    2
  ---------------------------------------------------------------------------

            1           2           3           4           5           6           7           8           9          10
           11          12          13          14          15          16          17          18          19          20
           21          22          23          24          25          26          27          28          29          30
           31          32          33          34          35          36          37          38          39          40
           41          42          43          44          45          46          47          48          49          50
           51          52          53          54          55          56          57          58          59          60
           61          62          63          64          65          66          67          68          69          70
           71          72          73          74          75          76          77          78          79          80
           81          82          83          84          85          86          87          88          89          90
           91          92          93          94          95          96          97          98          99         100
 ........................................................................................................................
   1    10.00       31.68       52.10       71.32       89.40       106.4       122.3       137.3       151.2       164.3    
        176.4       187.6       198.0       207.6       216.3       224.3       231.4       237.8       243.5       248.4    
        252.6       256.1       258.9       260.9       262.3       263.0       0.000       0.000       0.000       0.000    
        0.000       0.000       0.000       0.000       0.000       0.000       0.000       0.000       0.000       0.000    
        0.000       0.000       0.000       0.000       0.000       0.000       0.000       0.000       0.000       0.000    
        0.000       0.000       0.000       0.000       0.000       0.000       0.000       0.000       0.000       0.000    
        0.000       0.000       0.000       0.000       0.000       0.000       0.000       0.000       0.000       294.8    
        294.2       293.0       291.2       288.8       285.9       282.3       278.2       273.4       268.1       262.2    
        255.7       248.5       240.8       232.5       223.5       213.9       203.8       192.9       181.5       169.3    
        156.6       143.1       129.0       114.2       98.68       82.45       65.48       47.77       29.28       10.00    
1
              HEAD IN LAYER   2 AT END OF TIME STEP   1 IN STRESS PERIOD    2
  ---------------------------------------------------------------------------

            1           2           3           4           5           6           7           8           9          10
           11          12          13          14          15          16          17          18          19          20
           21          22          23          24          25          26          27          28          29          30
           31          32          33          34          35          36          37          38          39          40
           41          42          43          44          45          46          47          48          49          50
           51          52          53          54          55          56          57          58          59          60
           61          62          63          64          65          66          67          68          69          70
           71          72          73          74          75          76          77          78          79          80
           81          82          83          84          85          86          87          88          89          90
           91          92          93          94          95          96          97          98          99         100
 ........................................................................................................................
   1    187.1       187.1       187.2       187.3       187.4       187.5       187.7       187.8       188.0       188.1    
        188.3       188.5       188.7       188.8       189.0       189.2       189.3       189.5       189.6       189.7    
        189.8       189.9       190.0       190.1       190.2       190.2       190.3       190.3       190.4       190.4    
        190.4       190.5       190.5       190.5       190.6       190.6       190.7       190.7       190.7       190.8    
        190.8       190.9       190.9       190.9       191.0       191.0       191.1       191.1       191.1       191.2    
        191.2       191.3       191.3       191.4       191.4       191.4       191.5       191.5       191.6       191.6    
        191.6       191.7       191.7       191.8       191.8       191.9       191.9       192.0       192.0       192.0    
        192.1       192.1       192.1       192.0       192.0       191.9       191.8       191.7       191.6       191.5    
        191.4       191.2       191.1       190.9       190.7       190.5       190.3       190.1       189.9       189.8    
        189.6       189.4       189.2       189.1       188.9       188.8       188.7       188.6       188.5       188.5    
1
              HEAD IN LAYER   3 AT END OF TIME STEP   1 IN STRESS PERIOD    2
  ---------------------------------------------------------------------------

            1           2           3           4           5           6           7           8           9          10
           11          12          13          14          15          16          17          18          19          20
           21          22          23          24          25          26          27          28          29          30
           31          32          33          34          35          36          37          38          39          40
           41          42          43          44          45          46          47          48          49          50
           51          52          53          54          55          56          57          58          59          60
           61          62          63          64          65          66          67          68          69          70
           71          72          73          74          75          76          77          78          79          80
           81          82          83          84          85          86          87          88          89          90
           91          92          93          94          95          96          97          98          99         100
 ........................................................................................................................
   1    190.1       190.1       190.1       190.1       190.1       190.1       190.1       190.1       190.1       190.1    
        190.1       190.1       190.1       190.1       190.1       190.1       190.1       190.1       190.2       190.2    
        190.2       190.2       190.2       190.2       190.2       190.2       190.2       190.2       190.2       190.2    
        190.2       190.2       190.3       190.3       190.3       190.3       190.3       190.3       190.3       190.3    
        190.3       190.3       190.3       190.3       190.3       190.3       190.3       190.3       190.4       190.4    
        190.4       190.4       190.4       190.4       190.4       190.4       190.4       190.4       190.4       190.4    
        190.4       190.4       190.4       190.4       190.4       190.4       190.4       190.4       190.4       190.4    
        190.4       190.4       190.4       190.4       190.4       190.4       190.4       190.4       190.4       190.4    
        190.4       190.4       190.4       190.4       190.4       190.4       190.4       190.4       190.4       190.4    
        190.4       190.4       190.4       190.4       190.4       190.4       190.4       190.4       190.4       190.4    

 HEAD WILL BE SAVED ON UNIT   51 AT END OF TIME STEP    1, STRESS PERIOD    2

 DRAWDOWN WILL BE SAVED ON UNIT   52 AT END OF TIME STEP    1, STRESS PERIOD    2
1
  VOLUMETRIC BUDGET FOR ENTIRE MODEL AT END OF TIME STEP    1, STRESS PERIOD   2
  ------------------------------------------------------------------------------

     CUMULATIVE VOLUMES      L**3       RATES FOR THIS TIME STEP      L**3/T
     ------------------                 ------------------------

           IN:                                      IN:
           ---                                      ---
             STORAGE =       2.9999E-02               STORAGE =       1.0476E-03
       CONSTANT HEAD =           0.0000         CONSTANT HEAD =           0.0000
               WELLS =           0.0000                 WELLS =           0.0000
            RECHARGE =     1114960.5000              RECHARGE =       37620.0000
    INST. IB STORAGE =       4.4449E-02      INST. IB STORAGE =       1.5521E-03
    DELAY IB STORAGE =       1.5700E-02      DELAY IB STORAGE =       5.4823E-04

            TOTAL IN =     1114960.5000              TOTAL IN =       37620.0000

          OUT:                                     OUT:
          ----                                     ----
             STORAGE =       4.6997E-03               STORAGE =       1.6411E-04
       CONSTANT HEAD =     1114960.5000         CONSTANT HEAD =       37620.0000
               WELLS =           0.0000                 WELLS =           0.0000
            RECHARGE =           0.0000              RECHARGE =           0.0000
    INST. IB STORAGE =       1.2207E-04      INST. IB STORAGE =       4.2626E-06
    DELAY IB STORAGE =       8.0807E-02      DELAY IB STORAGE =       2.8217E-03

           TOTAL OUT =     1114960.6250             TOTAL OUT =       37620.0039

            IN - OUT =          -0.1250              IN - OUT =      -3.9062E-03

 PERCENT DISCREPANCY =          -0.00     PERCENT DISCREPANCY =          -0.00






         TIME SUMMARY AT END OF TIME STEP    1 IN STRESS PERIOD    2
                    SECONDS     MINUTES      HOURS       DAYS        YEARS
                    -----------------------------------------------------------
   TIME STEP LENGTH 2.47427E+06  41238.      687.30      28.637     7.84050E-02
 STRESS PERIOD TIME 2.47427E+06  41238.      687.30      28.637     7.84050E-02
         TOTAL TIME 2.56067E+06  42678.      711.30      29.637     8.11429E-02
1
 
 SOLVING FOR HEAD 
     2 ITERATIONS FOR TIME STEP   2 IN STRESS PERIOD    2

 OUTPUT CONTROL FOR STRESS PERIOD    2   TIME STEP    2
    SAVE HEAD FOR ALL LAYERS
    SAVE DRAWDOWN FOR ALL LAYERS
    SAVE BUDGET
    PRINT HEAD FOR ALL LAYERS
    PRINT BUDGET
1
              HEAD IN LAYER   1 AT END OF TIME STEP   2 IN STRESS PERIOD    2
  ---------------------------------------------------------------------------

            1           2           3           4           5           6           7           8           9          10
           11          12          13          14          15          16          17          18          19          20
           21          22          23          24          25          26          27          28          29          30
           31          32          33          34          35          36          37          38          39          40
           41          42          43          44          45          46          47          48          49          50
           51          52          53          54          55          56          57          58          59          60
           61          62          63          64          65          66          67          68          69          70
           71          72          73          74          75          76          77          78          79          80
           81          82          83          84          85          86          87          88          89          90
           91          92          93          94          95          96          97          98          99         100
 ........................................................................................................................
   1    10.00       31.68       52.10       71.32       89.40       106.4       122.3       137.3       151.2       164.3    
        176.4       187.6       198.0       207.6       216.3       224.3       231.4       237.8       243.5       248.4    
        252.6       256.1       258.9       260.9       262.3       263.0       0.000       0.000       0.000       0.000    
        0.000       0.000       0.000       0.000       0.000       0.000       0.000       0.000       0.000       0.000    
        0.000       0.000       0.000       0.000       0.000       0.000       0.000       0.000       0.000       0.000    
        0.000       0.000       0.000       0.000       0.000       0.000       0.000       0.000       0.000       0.000    
        0.000       0.000       0.000       0.000       0.000       0.000       0.000       0.000       0.000       294.8    
        294.2       293.0       291.2       288.8       285.9       282.3       278.2       273.4       268.1       262.2    
        255.7       248.5       240.8       232.5       223.5       213.9       203.8       192.9       181.5       169.3    
        156.6       143.1       129.0       114.2       98.68       82.45       65.48       47.77       29.28       10.00    
1
              HEAD IN LAYER   2 AT END OF TIME STEP   2 IN STRESS PERIOD    2
  ---------------------------------------------------------------------------

            1           2           3           4           5           6           7           8           9          10
           11          12          13          14          15          16          17          18          19          20
           21          22          23          24          25          26          27          28          29          30
           31          32          33          34          35          36          37          38          39          40
           41          42          43          44          45          46          47          48          49          50
           51          52          53          54          55          56          57          58          59          60
           61          62          63          64          65          66          67          68          69          70
           71          72          73          74          75          76          77          78          79          80
           81          82          83          84          85          86          87          88          89          90
           91          92          93          94          95          96          97          98          99         100
 ........................................................................................................................
   1    187.1       187.1       187.2       187.3       187.4       187.5       187.7       187.8       188.0       188.1    
        188.3       188.5       188.7       188.8       189.0       189.2       189.3       189.5       189.6       189.7    
        189.8       189.9       190.0       190.1       190.2       190.2       190.3       190.3       190.4       190.4    
        190.4       190.5       190.5       190.5       190.6       190.6       190.7       190.7       190.7       190.8    
        190.8       190.9       190.9       190.9       191.0       191.0       191.1       191.1       191.1       191.2    
        191.2       191.3       191.3       191.4       191.4       191.4       191.5       191.5       191.6       191.6    
        191.6       191.7       191.7       191.8       191.8       191.9       191.9       192.0       192.0       192.0    
        192.1       192.1       192.1       192.0       192.0       191.9       191.8       191.7       191.6       191.5    
        191.4       191.2       191.1       190.9       190.7       190.5       190.3       190.1       189.9       189.8    
        189.6       189.4       189.2       189.1       188.9       188.8       188.7       188.6       188.5       188.5    
1
              HEAD IN LAYER   3 AT END OF TIME STEP   2 IN STRESS PERIOD    2
  ---------------------------------------------------------------------------

            1           2           3           4           5           6           7           8           9          10
           11          12          13          14          15          16          17          18          19          20
           21          22          23          24          25          26          27          28          29          30
           31          32          33          34          35          36          37          38          39          40
           41          42          43          44          45          46          47          48          49          50
           51          52          53          54          55          56          57          58          59          60
           61          62          63          64          65          66          67          68          69          70
           71          72          73          74          75          76          77          78          79          80
           81          82          83          84          85          86          87          88          89          90
           91          92          93          94          95          96          97          98          99         100
 ........................................................................................................................
   1    190.1       190.1       190.1       190.1       190.1       190.1       190.1       190.1       190.1       190.1    
        190.1       190.1       190.1       190.1       190.1       190.1       190.1       190.1       190.2       190.2    
        190.2       190.2       190.2       190.2       190.2       190.2       190.2       190.2       190.2       190.2    
        190.2       190.2       190.3       190.3       190.3       190.3       190.3       190.3       190.3       190.3    
        190.3       190.3       190.3       190.3       190.3       190.3       190.3       190.3       190.4       190.4    
        190.4       190.4       190.4       190.4       190.4       190.4       190.4       190.4       190.4       190.4    
        190.4       190.4       190.4       190.4       190.4       190.4       190.4       190.4       190.4       190.4    
        190.4       190.4       190.4       190.4       190.4       190.4       190.4       190.4       190.4       190.4    
        190.4       190.4       190.4       190.4       190.4       190.4       190.4       190.4       190.4       190.4    
        190.4       190.4       190.4       190.4       190.4       190.4       190.4       190.4       190.4       190.4    

 HEAD WILL BE SAVED ON UNIT   51 AT END OF TIME STEP    2, STRESS PERIOD    2

 DRAWDOWN WILL BE SAVED ON UNIT   52 AT END OF TIME STEP    2, STRESS PERIOD    2
1
  VOLUMETRIC BUDGET FOR ENTIRE MODEL AT END OF TIME STEP    2, STRESS PERIOD   2
  ------------------------------------------------------------------------------

     CUMULATIVE VOLUMES      L**3       RATES FOR THIS TIME STEP      L**3/T
     ------------------                 ------------------------

           IN:                                      IN:
           ---                                      ---
             STORAGE =       3.3317E-02               STORAGE =       8.9116E-05
       CONSTANT HEAD =           0.0000         CONSTANT HEAD =           0.0000
               WELLS =           0.0000                 WELLS =           0.0000
            RECHARGE =     2515503.0000              RECHARGE =       37620.0000
    INST. IB STORAGE =       4.5258E-02      INST. IB STORAGE =       2.1723E-05
    DELAY IB STORAGE =       8.0665E-02      DELAY IB STORAGE =       1.7450E-03

            TOTAL IN =     2515503.0000              TOTAL IN =       37620.0000

          OUT:                                     OUT:
          ----                                     ----
             STORAGE =       2.3659E-02               STORAGE =       5.0928E-04
       CONSTANT HEAD =     2515503.0000         CONSTANT HEAD =       37620.0000
               WELLS =           0.0000                 WELLS =           0.0000
            RECHARGE =           0.0000              RECHARGE =           0.0000
    INST. IB STORAGE =       2.2202E-02      INST. IB STORAGE =       5.9308E-04
    DELAY IB STORAGE =       8.6521E-02      DELAY IB STORAGE =       1.5348E-04

           TOTAL OUT =     2515503.0000             TOTAL OUT =       37620.0000

            IN - OUT =           0.0000              IN - OUT =           0.0000

 PERCENT DISCREPANCY =           0.00     PERCENT DISCREPANCY =           0.00






         TIME SUMMARY AT END OF TIME STEP    2 IN STRESS PERIOD    2
                    SECONDS     MINUTES      HOURS       DAYS        YEARS
                    -----------------------------------------------------------
   TIME STEP LENGTH 3.21656E+06  53609.      893.49      37.229     0.10193    
 STRESS PERIOD TIME 5.69083E+06  94847.      1580.8      65.866     0.18033    
         TOTAL TIME 5.77723E+06  96287.      1604.8      66.866     0.18307    
1
 
 SOLVING FOR HEAD 
     2 ITERATIONS FOR TIME STEP   3 IN STRESS PERIOD    2

 OUTPUT CONTROL FOR STRESS PERIOD    2   TIME STEP    3
    SAVE HEAD FOR ALL LAYERS
    SAVE DRAWDOWN FOR ALL LAYERS
    SAVE BUDGET
    PRINT HEAD FOR ALL LAYERS
    PRINT BUDGET
1
              HEAD IN LAYER   1 AT END OF TIME STEP   3 IN STRESS PERIOD    2
  ---------------------------------------------------------------------------

            1           2           3           4           5           6           7           8           9          10
           11          12          13          14          15          16          17          18          19          20
           21          22          23          24          25          26          27          28          29          30
           31          32          33          34          35          36          37          38          39          40
           41          42          43          44          45          46          47          48          49          50
           51          52          53          54          55          56          57          58          59          60
           61          62          63          64          65          66          67          68          69          70
           71          72          73          74          75          76          77          78          79          80
           81          82          83          84          85          86          87          88          89          90
           91          92          93          94          95          96          97          98          99         100
 ........................................................................................................................
   1    10.00       31.68       52.10       71.32       89.40       106.4       122.3       137.3       151.2       164.3    
        176.4       187.6       198.0       207.6       216.3       224.3       231.4       237.8       243.5       248.4    
        252.6       256.1       258.9       260.9       262.3       263.0       0.000       0.000       0.000       0.000    
        0.000       0.000       0.000       0.000       0.000       0.000       0.000       0.000       0.000       0.000    
        0.000       0.000       0.000       0.000       0.000       0.000       0.000       0.000       0.000       0.000    
        0.000       0.000       0.000       0.000       0.000       0.000       0.000       0.000       0.000       0.000    
        0.000       0.000       0.000       0.000       0.000       0.000       0.000       0.000       0.000       294.8    
        294.2       293.0       291.2       288.8       285.9       282.3       278.2       273.4       268.1       262.2    
        255.7       248.5       240.8       232.5       223.5       213.9       203.8       192.9       181.5       169.3    
        156.6       143.1       129.0       114.2       98.68       82.45       65.48       47.77       29.28       10.00    
1
              HEAD IN LAYER   2 AT END OF TIME STEP   3 IN STRESS PERIOD    2
  ---------------------------------------------------------------------------

            1           2           3           4           5           6           7           8           9          10
           11          12          13          14          15          16          17          18          19          20
           21          22          23          24          25          26          27          28          29          30
           31          32          33          34          35          36          37          38          39          40
           41          42          43          44          45          46          47          48          49          50
           51          52          53          54          55          56          57          58          59          60
           61          62          63          64          65          66          67          68          69          70
           71          72          73          74          75          76          77          78          79          80
           81          82          83          84          85          86          87          88          89          90
           91          92          93          94          95          96          97          98          99         100
 ........................................................................................................................
   1    187.1       187.1       187.2       187.3       187.4       187.5       187.7       187.8       188.0       188.1    
        188.3       188.5       188.7       188.8       189.0       189.2       189.3       189.5       189.6       189.7    
        189.8       189.9       190.0       190.1       190.2       190.2       190.3       190.3       190.4       190.4    
        190.4       190.5       190.5       190.5       190.6       190.6       190.7       190.7       190.7       190.8    
        190.8       190.9       190.9       190.9       191.0       191.0       191.1       191.1       191.1       191.2    
        191.2       191.3       191.3       191.4       191.4       191.4       191.5       191.5       191.6       191.6    
        191.6       191.7       191.7       191.8       191.8       191.9       191.9       192.0       192.0       192.0    
        192.1       192.1       192.1       192.0       192.0       191.9       191.8       191.7       191.6       191.5    
        191.4       191.2       191.1       190.9       190.7       190.5       190.3       190.1       189.9       189.8    
        189.6       189.4       189.2       189.1       188.9       188.8       188.7       188.6       188.5       188.5    
1
              HEAD IN LAYER   3 AT END OF TIME STEP   3 IN STRESS PERIOD    2
  ---------------------------------------------------------------------------

            1           2           3           4           5           6           7           8           9          10
           11          12          13          14          15          16          17          18          19          20
           21          22          23          24          25          26          27          28          29          30
           31          32          33          34          35          36          37          38          39          40
           41          42          43          44          45          46          47          48          49          50
           51          52          53          54          55          56          57          58          59          60
           61          62          63          64          65          66          67          68          69          70
           71          72          73          74          75          76          77          78          79          80
           81          82          83          84          85          86          87          88          89          90
           91          92          93          94          95          96          97          98          99         100
 ........................................................................................................................
   1    190.1       190.1       190.1       190.1       190.1       190.1       190.1       190.1       190.1       190.1    
        190.1       190.1       190.1       190.1       190.1       190.1       190.1       190.2       190.2       190.2    
        190.2       190.2       190.2       190.2       190.2       190.2       190.2       190.2       190.2       190.2    
        190.2       190.2       190.3       190.3       190.3       190.3       190.3       190.3       190.3       190.3    
        190.3       190.3       190.3       190.3       190.3       190.3       190.3       190.3       190.4       190.4    
        190.4       190.4       190.4       190.4       190.4       190.4       190.4       190.4       190.4       190.4    
        190.4       190.4       190.4       190.4       190.4       190.4       190.4       190.4       190.4       190.4    
        190.4       190.4       190.4       190.4       190.4       190.4       190.4       190.4       190.4       190.4    
        190.4       190.4       190.4       190.4       190.4       190.4       190.4       190.4       190.4       190.4    
        190.4       190.4       190.4       190.4       190.4       190.4       190.4       190.4       190.4       190.4    

 HEAD WILL BE SAVED ON UNIT   51 AT END OF TIME STEP    3, STRESS PERIOD    2

 DRAWDOWN WILL BE SAVED ON UNIT   52 AT END OF TIME STEP    3, STRESS PERIOD    2
1
  VOLUMETRIC BUDGET FOR ENTIRE MODEL AT END OF TIME STEP    3, STRESS PERIOD   2
  ------------------------------------------------------------------------------

     CUMULATIVE VOLUMES      L**3       RATES FOR THIS TIME STEP      L**3/T
     ------------------                 ------------------------

           IN:                                      IN:
           ---                                      ---
             STORAGE =       3.6254E-02               STORAGE =       6.0692E-05
       CONSTANT HEAD =           0.0000         CONSTANT HEAD =           0.0000
               WELLS =           0.0000                 WELLS =           0.0000
            RECHARGE =     4336208.0000              RECHARGE =       37620.0000
    INST. IB STORAGE =       4.5319E-02      INST. IB STORAGE =       1.2611E-06
    DELAY IB STORAGE =           0.1976      DELAY IB STORAGE =       2.4161E-03

            TOTAL IN =     4336208.0000              TOTAL IN =       37620.0039

          OUT:                                     OUT:
          ----                                     ----
             STORAGE =       6.5205E-02               STORAGE =       8.5842E-04
       CONSTANT HEAD =     4336208.0000         CONSTANT HEAD =       37620.0000
               WELLS =           0.0000                 WELLS =           0.0000
            RECHARGE =           0.0000              RECHARGE =           0.0000
    INST. IB STORAGE =       8.7959E-02      INST. IB STORAGE =       1.3587E-03
    DELAY IB STORAGE =           0.1230      DELAY IB STORAGE =       7.5460E-04

           TOTAL OUT =     4336208.0000             TOTAL OUT =       37620.0000

            IN - OUT =           0.0000              IN - OUT =       3.9062E-03

 PERCENT DISCREPANCY =           0.00     PERCENT DISCREPANCY =           0.00






         TIME SUMMARY AT END OF TIME STEP    3 IN STRESS PERIOD    2
                    SECONDS     MINUTES      HOURS       DAYS        YEARS
                    -----------------------------------------------------------
   TIME STEP LENGTH 4.18152E+06  69692.      1161.5      48.397     0.13250    
 STRESS PERIOD TIME 9.87236E+06 1.64539E+05  2742.3      114.26     0.31284    
         TOTAL TIME 9.95876E+06 1.65979E+05  2766.3      115.26     0.31557    
1
 
 SOLVING FOR HEAD 
     2 ITERATIONS FOR TIME STEP   4 IN STRESS PERIOD    2

 OUTPUT CONTROL FOR STRESS PERIOD    2   TIME STEP    4
    SAVE HEAD FOR ALL LAYERS
    SAVE DRAWDOWN FOR ALL LAYERS
    SAVE BUDGET
    PRINT HEAD FOR ALL LAYERS
    PRINT BUDGET
1
              HEAD IN LAYER   1 AT END OF TIME STEP   4 IN STRESS PERIOD    2
  ---------------------------------------------------------------------------

            1           2           3           4           5           6           7           8           9          10
           11          12          13          14          15          16          17          18          19          20
           21          22          23          24          25          26          27          28          29          30
           31          32          33          34          35          36          37          38          39          40
           41          42          43          44          45          46          47          48          49          50
           51          52          53          54          55          56          57          58          59          60
           61          62          63          64          65          66          67          68          69          70
           71          72          73          74          75          76          77          78          79          80
           81          82          83          84          85          86          87          88          89          90
           91          92          93          94          95          96          97          98          99         100
 ........................................................................................................................
   1    10.00       31.68       52.10       71.32       89.40       106.4       122.3       137.3       151.2       164.3    
        176.4       187.6       198.0       207.6       216.3       224.3       231.4       237.8       243.5       248.4    
        252.6       256.1       258.9       260.9       262.3       263.0       0.000       0.000       0.000       0.000    
        0.000       0.000       0.000       0.000       0.000       0.000       0.000       0.000       0.000       0.000    
        0.000       0.000       0.000       0.000       0.000       0.000       0.000       0.000       0.000       0.000    
        0.000       0.000       0.000       0.000       0.000       0.000       0.000       0.000       0.000       0.000    
        0.000       0.000       0.000       0.000       0.000       0.000       0.000       0.000       0.000       294.8    
        294.2       293.0       291.2       288.8       285.9       282.3       278.2       273.4       268.1       262.2    
        255.7       248.5       240.8       232.5       223.5       213.9       203.8       192.9       181.5       169.3    
        156.6       143.1       129.0       114.2       98.68       82.45       65.48       47.77       29.28       10.00    
1
              HEAD IN LAYER   2 AT END OF TIME STEP   4 IN STRESS PERIOD    2
  ---------------------------------------------------------------------------

            1           2           3           4           5           6           7           8           9          10
           11          12          13          14          15          16          17          18          19          20
           21          22          23          24          25          26          27          28          29          30
           31          32          33          34          35          36          37          38          39          40
           41          42          43          44          45          46          47          48          49          50
           51          52          53          54          55          56          57          58          59          60
           61          62          63          64          65          66          67          68          69          70
           71          72          73          74          75          76          77          78          79          80
           81          82          83          84          85          86          87          88          89          90
           91          92          93          94          95          96          97          98          99         100
 ........................................................................................................................
   1    187.1       187.1       187.2       187.3       187.4       187.5       187.7       187.8       188.0       188.1    
        188.3       188.5       188.7       188.8       189.0       189.2       189.3       189.5       189.6       189.7    
        189.8       189.9       190.0       190.1       190.2       190.2       190.3       190.3       190.4       190.4    
        190.4       190.5       190.5       190.5       190.6       190.6       190.7       190.7       190.7       190.8    
        190.8       190.9       190.9       190.9       191.0       191.0       191.1       191.1       191.1       191.2    
        191.2       191.3       191.3       191.4       191.4       191.4       191.5       191.5       191.6       191.6    
        191.6       191.7       191.7       191.8       191.8       191.9       191.9       192.0       192.0       192.0    
        192.1       192.1       192.1       192.0       192.0       191.9       191.8       191.7       191.6       191.5    
        191.4       191.2       191.1       190.9       190.7       190.5       190.3       190.1       189.9       189.8    
        189.6       189.4       189.2       189.1       188.9       188.8       188.7       188.6       188.5       188.5    
1
              HEAD IN LAYER   3 AT END OF TIME STEP   4 IN STRESS PERIOD    2
  ---------------------------------------------------------------------------

            1           2           3           4           5           6           7           8           9          10
           11          12          13          14          15          16          17          18          19          20
           21          22          23          24          25          26          27          28          29          30
           31          32          33          34          35          36          37          38          39          40
           41          42          43          44          45          46          47          48          49          50
           51          52          53          54          55          56          57          58          59          60
           61          62          63          64          65          66          67          68          69          70
           71          72          73          74          75          76          77          78          79          80
           81          82          83          84          85          86          87          88          89          90
           91          92          93          94          95          96          97          98          99         100
 ........................................................................................................................
   1    190.1       190.1       190.1       190.1       190.1       190.1       190.1       190.1       190.1       190.1    
        190.1       190.1       190.1       190.1       190.1       190.1       190.1       190.1       190.2       190.2    
        190.2       190.2       190.2       190.2       190.2       190.2       190.2       190.2       190.2       190.2    
        190.2       190.2       190.3       190.3       190.3       190.3       190.3       190.3       190.3       190.3    
        190.3       190.3       190.3       190.3       190.3       190.3       190.3       190.3       190.4       190.4    
        190.4       190.4       190.4       190.4       190.4       190.4       190.4       190.4       190.4       190.4    
        190.4       190.4       190.4       190.4       190.4       190.4       190.4       190.4       190.4       190.4    
        190.4       190.4       190.4       190.4       190.4       190.4       190.4       190.4       190.4       190.4    
        190.4       190.4       190.4       190.4       190.4       190.4       190.4       190.4       190.4       190.4    
        190.4       190.4       190.4       190.4       190.4       190.4       190.4       190.4       190.4       190.4    

 HEAD WILL BE SAVED ON UNIT   51 AT END OF TIME STEP    4, STRESS PERIOD    2

 DRAWDOWN WILL BE SAVED ON UNIT   52 AT END OF TIME STEP    4, STRESS PERIOD    2
1
  VOLUMETRIC BUDGET FOR ENTIRE MODEL AT END OF TIME STEP    4, STRESS PERIOD   2
  ------------------------------------------------------------------------------

     CUMULATIVE VOLUMES      L**3       RATES FOR THIS TIME STEP      L**3/T
     ------------------                 ------------------------

           IN:                                      IN:
           ---                                      ---
             STORAGE =       6.0969E-02               STORAGE =       3.9282E-04
       CONSTANT HEAD =           0.0000         CONSTANT HEAD =           0.0000
               WELLS =           0.0000                 WELLS =           0.0000
            RECHARGE =     6703125.0000              RECHARGE =       37620.0000
    INST. IB STORAGE =       7.7980E-02      INST. IB STORAGE =       5.1912E-04
    DELAY IB STORAGE =           0.2037      DELAY IB STORAGE =       9.6781E-05

            TOTAL IN =     6703125.0000              TOTAL IN =       37620.0000

          OUT:                                     OUT:
          ----                                     ----
             STORAGE =       6.5310E-02               STORAGE =       1.6705E-06
       CONSTANT HEAD =     6703125.0000         CONSTANT HEAD =       37620.0000
               WELLS =           0.0000                 WELLS =           0.0000
            RECHARGE =           0.0000              RECHARGE =           0.0000
    INST. IB STORAGE =       8.8219E-02      INST. IB STORAGE =       4.1229E-06
    DELAY IB STORAGE =           0.2174      DELAY IB STORAGE =       1.5002E-03

           TOTAL OUT =     6703125.0000             TOTAL OUT =       37620.0000

            IN - OUT =           0.0000              IN - OUT =           0.0000

 PERCENT DISCREPANCY =           0.00     PERCENT DISCREPANCY =           0.00






         TIME SUMMARY AT END OF TIME STEP    4 IN STRESS PERIOD    2
                    SECONDS     MINUTES      HOURS       DAYS        YEARS
                    -----------------------------------------------------------
   TIME STEP LENGTH 5.43598E+06  90600.      1510.0      62.916     0.17226    
 STRESS PERIOD TIME 1.53083E+07 2.55139E+05  4252.3      177.18     0.48509    
         TOTAL TIME 1.53947E+07 2.56579E+05  4276.3      178.18     0.48783    
1
 
 SOLVING FOR HEAD 
     1 ITERATIONS FOR TIME STEP   5 IN STRESS PERIOD    2

 MAXIMUM HEAD CHANGE FOR EACH ITERATION:

    HEAD CHANGE   HEAD CHANGE   HEAD CHANGE   HEAD CHANGE   HEAD CHANGE
  LAYER,ROW,COL LAYER,ROW,COL LAYER,ROW,COL LAYER,ROW,COL LAYER,ROW,COL
 ----------------------------------------------------------------------
    -0.8682E-04
  (  3,  1, 17)


 OUTPUT CONTROL FOR STRESS PERIOD    2   TIME STEP    5
    SAVE HEAD FOR ALL LAYERS
    SAVE DRAWDOWN FOR ALL LAYERS
    SAVE BUDGET
    PRINT HEAD FOR ALL LAYERS
    PRINT BUDGET
1
              HEAD IN LAYER   1 AT END OF TIME STEP   5 IN STRESS PERIOD    2
  ---------------------------------------------------------------------------

            1           2           3           4           5           6           7           8           9          10
           11          12          13          14          15          16          17          18          19          20
           21          22          23          24          25          26          27          28          29          30
           31          32          33          34          35          36          37          38          39          40
           41          42          43          44          45          46          47          48          49          50
           51          52          53          54          55          56          57          58          59          60
           61          62          63          64          65          66          67          68          69          70
           71          72          73          74          75          76          77          78          79          80
           81          82          83          84          85          86          87          88          89          90
           91          92          93          94          95          96          97          98          99         100
 ........................................................................................................................
   1    10.00       31.68       52.10       71.32       89.40       106.4       122.3       137.3       151.2       164.3    
        176.4       187.6       198.0       207.6       216.3       224.3       231.4       237.8       243.5       248.4    
        252.6       256.1       258.9       260.9       262.3       263.0       0.000       0.000       0.000       0.000    
        0.000       0.000       0.000       0.000       0.000       0.000       0.000       0.000       0.000       0.000    
        0.000       0.000       0.000       0.000       0.000       0.000       0.000       0.000       0.000       0.000    
        0.000       0.000       0.000       0.000       0.000       0.000       0.000       0.000       0.000       0.000    
        0.000       0.000       0.000       0.000       0.000       0.000       0.000       0.000       0.000       294.8    
        294.2       293.0       291.2       288.8       285.9       282.3       278.2       273.4       268.1       262.2    
        255.7       248.5       240.8       232.5       223.5       213.9       203.8       192.9       181.5       169.3    
        156.6       143.1       129.0       114.2       98.68       82.45       65.48       47.77       29.28       10.00    
1
              HEAD IN LAYER   2 AT END OF TIME STEP   5 IN STRESS PERIOD    2
  ---------------------------------------------------------------------------

            1           2           3           4           5           6           7           8           9          10
           11          12          13          14          15          16          17          18          19          20
           21          22          23          24          25          26          27          28          29          30
           31          32          33          34          35          36          37          38          39          40
           41          42          43          44          45          46          47          48          49          50
           51          52          53          54          55          56          57          58          59          60
           61          62          63          64          65          66          67          68          69          70
           71          72          73          74          75          76          77          78          79          80
           81          82          83          84          85          86          87          88          89          90
           91          92          93          94          95          96          97          98          99         100
 ........................................................................................................................
   1    187.1       187.1       187.2       187.3       187.4       187.5       187.7       187.8       188.0       188.1    
        188.3       188.5       188.7       188.8       189.0       189.2       189.3       189.5       189.6       189.7    
        189.8       189.9       190.0       190.1       190.2       190.2       190.3       190.3       190.4       190.4    
        190.4       190.5       190.5       190.5       190.6       190.6       190.7       190.7       190.7       190.8    
        190.8       190.9       190.9       190.9       191.0       191.0       191.1       191.1       191.1       191.2    
        191.2       191.3       191.3       191.4       191.4       191.4       191.5       191.5       191.6       191.6    
        191.6       191.7       191.7       191.8       191.8       191.9       191.9       192.0       192.0       192.0    
        192.1       192.1       192.1       192.0       192.0       191.9       191.8       191.7       191.6       191.5    
        191.4       191.2       191.1       190.9       190.7       190.5       190.3       190.1       189.9       189.8    
        189.6       189.4       189.2       189.1       188.9       188.8       188.7       188.6       188.5       188.5    
1
              HEAD IN LAYER   3 AT END OF TIME STEP   5 IN STRESS PERIOD    2
  ---------------------------------------------------------------------------

            1           2           3           4           5           6           7           8           9          10
           11          12          13          14          15          16          17          18          19          20
           21          22          23          24          25          26          27          28          29          30
           31          32          33          34          35          36          37          38          39          40
           41          42          43          44          45          46          47          48          49          50
           51          52          53          54          55          56          57          58          59          60
           61          62          63          64          65          66          67          68          69          70
           71          72          73          74          75          76          77          78          79          80
           81          82          83          84          85          86          87          88          89          90
           91          92          93          94          95          96          97          98          99         100
 ........................................................................................................................
   1    190.1       190.1       190.1       190.1       190.1       190.1       190.1       190.1       190.1       190.1    
        190.1       190.1       190.1       190.1       190.1       190.1       190.1       190.1       190.2       190.2    
        190.2       190.2       190.2       190.2       190.2       190.2       190.2       190.2       190.2       190.2    
        190.2       190.2       190.3       190.3       190.3       190.3       190.3       190.3       190.3       190.3    
        190.3       190.3       190.3       190.3       190.3       190.3       190.3       190.3       190.4       190.4    
        190.4       190.4       190.4       190.4       190.4       190.4       190.4       190.4       190.4       190.4    
        190.4       190.4       190.4       190.4       190.4       190.4       190.4       190.4       190.4       190.4    
        190.4       190.4       190.4       190.4       190.4       190.4       190.4       190.4       190.4       190.4    
        190.4       190.4       190.4       190.4       190.4       190.4       190.4       190.4       190.4       190.4    
        190.4       190.4       190.4       190.4       190.4       190.4       190.4       190.4       190.4       190.4    

 HEAD WILL BE SAVED ON UNIT   51 AT END OF TIME STEP    5, STRESS PERIOD    2

 DRAWDOWN WILL BE SAVED ON UNIT   52 AT END OF TIME STEP    5, STRESS PERIOD    2
1
  VOLUMETRIC BUDGET FOR ENTIRE MODEL AT END OF TIME STEP    5, STRESS PERIOD   2
  ------------------------------------------------------------------------------

     CUMULATIVE VOLUMES      L**3       RATES FOR THIS TIME STEP      L**3/T
     ------------------                 ------------------------

           IN:                                      IN:
           ---                                      ---
             STORAGE =       7.1079E-02               STORAGE =       1.2360E-04
       CONSTANT HEAD =           0.0000         CONSTANT HEAD =           0.0000
               WELLS =           0.0000                 WELLS =           0.0000
            RECHARGE =     9780117.0000              RECHARGE =       37620.0000
    INST. IB STORAGE =       9.4231E-02      INST. IB STORAGE =       1.9868E-04
    DELAY IB STORAGE =           0.2407      DELAY IB STORAGE =       4.5303E-04

            TOTAL IN =     9780117.0000              TOTAL IN =       37620.0000

          OUT:                                     OUT:
          ----                                     ----
             STORAGE =       7.0010E-02               STORAGE =       5.7460E-05
       CONSTANT HEAD =     9780117.0000         CONSTANT HEAD =       37620.0000
               WELLS =           0.0000                 WELLS =           0.0000
            RECHARGE =           0.0000              RECHARGE =           0.0000
[...]
           41          42          43          44          45          46          47          48          49          50
           51          52          53          54          55          56          57          58          59          60
           61          62          63          64          65          66          67          68          69          70
           71          72          73          74          75          76          77          78          79          80
           81          82          83          84          85          86          87          88          89          90
           91          92          93          94          95          96          97          98          99         100
 ........................................................................................................................
   1    187.1       187.1       187.2       187.3       187.4       187.5       187.7       187.8       188.0       188.1    
        188.3       188.5       188.7       188.8       189.0       189.2       189.3       189.5       189.6       189.7    
        189.8       189.9       190.0       190.1       190.2       190.2       190.3       190.3       190.4       190.4    
        190.4       190.5       190.5       190.5       190.6       190.6       190.7       190.7       190.7       190.8    
        190.8       190.9       190.9       190.9       191.0       191.0       191.1       191.1       191.1       191.2    
        191.2       191.3       191.3       191.4       191.4       191.4       191.5       191.5       191.6       191.6    
        191.6       191.7       191.7       191.8       191.8       191.9       191.9       192.0       192.0       192.0    
        192.1       192.1       192.1       192.0       192.0       191.9       191.8       191.7       191.6       191.5    
        191.4       191.2       191.1       190.9       190.7       190.5       190.3       190.1       189.9       189.8    
        189.6       189.4       189.2       189.1       188.9       188.8       188.7       188.6       188.5       188.5    
1
              HEAD IN LAYER   3 AT END OF TIME STEP   5 IN STRESS PERIOD   11
  ---------------------------------------------------------------------------

            1           2           3           4           5           6           7           8           9          10
           11          12          13          14          15          16          17          18          19          20
           21          22          23          24          25          26          27          28          29          30
           31          32          33          34          35          36          37          38          39          40
           41          42          43          44          45          46          47          48          49          50
           51          52          53          54          55          56          57          58          59          60
           61          62          63          64          65          66          67          68          69          70
           71          72          73          74          75          76          77          78          79          80
           81          82          83          84          85          86          87          88          89          90
           91          92          93          94          95          96          97          98          99         100
 ........................................................................................................................
   1    190.1       190.1       190.1       190.1       190.1       190.1       190.1       190.1       190.1       190.1    
        190.1       190.1       190.1       190.1       190.1       190.1       190.1       190.1       190.2       190.2    
        190.2       190.2       190.2       190.2       190.2       190.2       190.2       190.2       190.2       190.2    
        190.2       190.2       190.3       190.3       190.3       190.3       190.3       190.3       190.3       190.3    
        190.3       190.3       190.3       190.3       190.3       190.3       190.3       190.3       190.4       190.4    
        190.4       190.4       190.4       190.4       190.4       190.4       190.4       190.4       190.4       190.4    
        190.4       190.4       190.4       190.4       190.4       190.4       190.4       190.4       190.4       190.4    
        190.4       190.4       190.4       190.4       190.4       190.4       190.4       190.4       190.4       190.4    
        190.4       190.4       190.4       190.4       190.4       190.4       190.4       190.4       190.4       190.4    
        190.4       190.4       190.4       190.4       190.4       190.4       190.4       190.4       190.4       190.4    

 HEAD WILL BE SAVED ON UNIT   51 AT END OF TIME STEP    5, STRESS PERIOD   11

 DRAWDOWN WILL BE SAVED ON UNIT   52 AT END OF TIME STEP    5, STRESS PERIOD   11
1
  VOLUMETRIC BUDGET FOR ENTIRE MODEL AT END OF TIME STEP    5, STRESS PERIOD  11
  ------------------------------------------------------------------------------

     CUMULATIVE VOLUMES      L**3       RATES FOR THIS TIME STEP      L**3/T
     ------------------                 ------------------------

           IN:                                      IN:
           ---                                      ---
             STORAGE =           0.8325               STORAGE =       1.1719E-04
       CONSTANT HEAD =           0.0000         CONSTANT HEAD =           0.0000
               WELLS =           0.0000                 WELLS =           0.0000
            RECHARGE =   133463416.0000              RECHARGE =       37620.0000
    INST. IB STORAGE =           1.1135      INST. IB STORAGE =       1.9066E-04
    DELAY IB STORAGE =           3.0345      DELAY IB STORAGE =       3.9138E-04

            TOTAL IN =   133463416.0000              TOTAL IN =       37620.0000

          OUT:                                     OUT:
          ----                                     ----
             STORAGE =           0.8227               STORAGE =       6.4642E-05
       CONSTANT HEAD =   133463416.0000         CONSTANT HEAD =       37620.0000
               WELLS =           0.0000                 WELLS =           0.0000
            RECHARGE =           0.0000              RECHARGE =           0.0000
    INST. IB STORAGE =           1.0929      INST. IB STORAGE =       1.6790E-06
    DELAY IB STORAGE =           3.0285      DELAY IB STORAGE =       5.9582E-04

           TOTAL OUT =   133463416.0000             TOTAL OUT =       37620.0000

            IN - OUT =           0.0000              IN - OUT =           0.0000

 PERCENT DISCREPANCY =           0.00     PERCENT DISCREPANCY =           0.00






         TIME SUMMARY AT END OF TIME STEP    5 IN STRESS PERIOD   11
                    SECONDS     MINUTES      HOURS       DAYS        YEARS
                    -----------------------------------------------------------
   TIME STEP LENGTH 7.06678E+06 1.17780E+05  1963.0      81.791     0.22393    
 STRESS PERIOD TIME 2.23751E+07 3.72919E+05  6215.3      258.97     0.70902    
         TOTAL TIME 3.06519E+08 5.10865E+06  85144.      3547.7      9.7130    
1
 
 SOLVING FOR HEAD 
     2 ITERATIONS FOR TIME STEP   6 IN STRESS PERIOD   11

 MAXIMUM HEAD CHANGE FOR EACH ITERATION:

    HEAD CHANGE   HEAD CHANGE   HEAD CHANGE   HEAD CHANGE   HEAD CHANGE
  LAYER,ROW,COL LAYER,ROW,COL LAYER,ROW,COL LAYER,ROW,COL LAYER,ROW,COL
 ----------------------------------------------------------------------
     0.1312E-03    0.5421E-04
  (  3,  1,  8) (  2,  1, 42)


 OUTPUT CONTROL FOR STRESS PERIOD   11   TIME STEP    6
    SAVE HEAD FOR ALL LAYERS
    SAVE DRAWDOWN FOR ALL LAYERS
    SAVE BUDGET
    PRINT HEAD FOR ALL LAYERS
    PRINT BUDGET
1
              HEAD IN LAYER   1 AT END OF TIME STEP   6 IN STRESS PERIOD   11
  ---------------------------------------------------------------------------

            1           2           3           4           5           6           7           8           9          10
           11          12          13          14          15          16          17          18          19          20
           21          22          23          24          25          26          27          28          29          30
           31          32          33          34          35          36          37          38          39          40
           41          42          43          44          45          46          47          48          49          50
           51          52          53          54          55          56          57          58          59          60
           61          62          63          64          65          66          67          68          69          70
           71          72          73          74          75          76          77          78          79          80
           81          82          83          84          85          86          87          88          89          90
           91          92          93          94          95          96          97          98          99         100
 ........................................................................................................................
   1    10.00       31.68       52.10       71.32       89.40       106.4       122.3       137.3       151.2       164.3    
        176.4       187.6       198.0       207.6       216.3       224.3       231.4       237.8       243.5       248.4    
        252.6       256.1       258.9       260.9       262.3       263.0       0.000       0.000       0.000       0.000    
        0.000       0.000       0.000       0.000       0.000       0.000       0.000       0.000       0.000       0.000    
        0.000       0.000       0.000       0.000       0.000       0.000       0.000       0.000       0.000       0.000    
        0.000       0.000       0.000       0.000       0.000       0.000       0.000       0.000       0.000       0.000    
        0.000       0.000       0.000       0.000       0.000       0.000       0.000       0.000       0.000       294.8    
        294.2       293.0       291.2       288.8       285.9       282.3       278.2       273.4       268.1       262.2    
        255.7       248.5       240.8       232.5       223.5       213.9       203.8       192.9       181.5       169.3    
        156.6       143.1       129.0       114.2       98.68       82.45       65.48       47.77       29.28       10.00    
1
              HEAD IN LAYER   2 AT END OF TIME STEP   6 IN STRESS PERIOD   11
  ---------------------------------------------------------------------------

            1           2           3           4           5           6           7           8           9          10
           11          12          13          14          15          16          17          18          19          20
           21          22          23          24          25          26          27          28          29          30
           31          32          33          34          35          36          37          38          39          40
           41          42          43          44          45          46          47          48          49          50
           51          52          53          54          55          56          57          58          59          60
           61          62          63          64          65          66          67          68          69          70
           71          72          73          74          75          76          77          78          79          80
           81          82          83          84          85          86          87          88          89          90
           91          92          93          94          95          96          97          98          99         100
 ........................................................................................................................
   1    187.1       187.1       187.2       187.3       187.4       187.5       187.7       187.8       188.0       188.1    
        188.3       188.5       188.7       188.8       189.0       189.2       189.3       189.5       189.6       189.7    
        189.8       189.9       190.0       190.1       190.2       190.2       190.3       190.3       190.4       190.4    
        190.4       190.5       190.5       190.5       190.6       190.6       190.7       190.7       190.7       190.8    
        190.8       190.9       190.9       190.9       191.0       191.0       191.1       191.1       191.1       191.2    
        191.2       191.3       191.3       191.4       191.4       191.4       191.5       191.5       191.6       191.6    
        191.6       191.7       191.7       191.8       191.8       191.9       191.9       192.0       192.0       192.0    
        192.1       192.1       192.1       192.0       192.0       191.9       191.8       191.7       191.6       191.5    
        191.4       191.2       191.1       190.9       190.7       190.5       190.3       190.1       189.9       189.8    
        189.6       189.4       189.2       189.1       188.9       188.8       188.7       188.6       188.5       188.5    
1
              HEAD IN LAYER   3 AT END OF TIME STEP   6 IN STRESS PERIOD   11
  ---------------------------------------------------------------------------

            1           2           3           4           5           6           7           8           9          10
           11          12          13          14          15          16          17          18          19          20
           21          22          23          24          25          26          27          28          29          30
           31          32          33          34          35          36          37          38          39          40
           41          42          43          44          45          46          47          48          49          50
           51          52          53          54          55          56          57          58          59          60
           61          62          63          64          65          66          67          68          69          70
           71          72          73          74          75          76          77          78          79          80
           81          82          83          84          85          86          87          88          89          90
           91          92          93          94          95          96          97          98          99         100
 ........................................................................................................................
   1    190.1       190.1       190.1       190.1       190.1       190.1       190.1       190.1       190.1       190.1    
        190.1       190.1       190.1       190.1       190.1       190.1       190.1       190.1       190.2       190.2    
        190.2       190.2       190.2       190.2       190.2       190.2       190.2       190.2       190.2       190.2    
        190.2       190.2       190.3       190.3       190.3       190.3       190.3       190.3       190.3       190.3    
        190.3       190.3       190.3       190.3       190.3       190.3       190.3       190.3       190.4       190.4    
        190.4       190.4       190.4       190.4       190.4       190.4       190.4       190.4       190.4       190.4    
        190.4       190.4       190.4       190.4       190.4       190.4       190.4       190.4       190.4       190.4    
        190.4       190.4       190.4       190.4       190.4       190.4       190.4       190.4       190.4       190.4    
        190.4       190.4       190.4       190.4       190.4       190.4       190.4       190.4       190.4       190.4    
        190.4       190.4       190.4       190.4       190.4       190.4       190.4       190.4       190.4       190.4    

 HEAD WILL BE SAVED ON UNIT   51 AT END OF TIME STEP    6, STRESS PERIOD   11

 DRAWDOWN WILL BE SAVED ON UNIT   52 AT END OF TIME STEP    6, STRESS PERIOD   11
1
  VOLUMETRIC BUDGET FOR ENTIRE MODEL AT END OF TIME STEP    6, STRESS PERIOD  11
  ------------------------------------------------------------------------------

     CUMULATIVE VOLUMES      L**3       RATES FOR THIS TIME STEP      L**3/T
     ------------------                 ------------------------

           IN:                                      IN:
           ---                                      ---
             STORAGE =           0.8366               STORAGE =       3.8675E-05
       CONSTANT HEAD =           0.0000         CONSTANT HEAD =           0.0000
               WELLS =           0.0000                 WELLS =           0.0000
            RECHARGE =   137463504.0000              RECHARGE =       37620.0000
    INST. IB STORAGE =           1.1136      INST. IB STORAGE =       8.6103E-07
    DELAY IB STORAGE =           3.1349      DELAY IB STORAGE =       9.4417E-04

            TOTAL IN =   137463504.0000              TOTAL IN =       37620.0000

          OUT:                                     OUT:
          ----                                     ----
             STORAGE =           0.8456               STORAGE =       2.1528E-04
       CONSTANT HEAD =   137463504.0000         CONSTANT HEAD =       37620.0000
               WELLS =           0.0000                 WELLS =           0.0000
            RECHARGE =           0.0000              RECHARGE =           0.0000
    INST. IB STORAGE =           1.1248      INST. IB STORAGE =       2.9921E-04
    DELAY IB STORAGE =           3.0350      DELAY IB STORAGE =       6.0852E-05

           TOTAL OUT =   137463504.0000             TOTAL OUT =       37620.0000

            IN - OUT =           0.0000              IN - OUT =           0.0000

 PERCENT DISCREPANCY =           0.00     PERCENT DISCREPANCY =           0.00






         TIME SUMMARY AT END OF TIME STEP    6 IN STRESS PERIOD   11
                    SECONDS     MINUTES      HOURS       DAYS        YEARS
                    -----------------------------------------------------------
   TIME STEP LENGTH 9.18681E+06 1.53113E+05  2551.9      106.33     0.29111    
 STRESS PERIOD TIME 3.15619E+07 5.26032E+05  8767.2      365.30      1.0001    
         TOTAL TIME 3.15706E+08 5.26176E+06  87696.      3654.0      10.004    
1

                               VOLUMETRIC BUDGET FOR SYSTEMS OF DELAY INTERBEDS
                                          AT END OF TIME STEP  6 IN STRESS PERIOD 11

          |   C U M U L A T I V E   V O L U M E S   L**3           | R A T E S   F O R  T H I S  T I M E  S T E P   L**3/T  |
   SYSTEM |    CHANGE IN     BOUNDARY                    PERCENT   |    CHANGE IN     BOUNDARY                    PERCENT   |
   NUMBER |     STORAGE        FLOW           SUM      DISCREPANCY |     STORAGE        FLOW           SUM      DISCREPANCY |
  --------|--------------------------------------------------------|--------------------------------------------------------|
      1    0.30884E-01   -0.30884E-01   -0.20489E-07   -0.66342E-04    0.28632E-03   -0.28632E-03    0.29104E-10    0.10165E-04
      2    0.69085E-01   -0.69085E-01   -0.18626E-06   -0.26962E-03    0.59700E-03   -0.59700E-03   -0.58208E-10   -0.97501E-05
  --------|--------------------------------------------------------|--------------------------------------------------------|
 TOTALS:    0.99969E-01   -0.99969E-01   -0.20862E-06   -0.20868E-03    0.88332E-03   -0.88332E-03   -0.58208E-10   -0.65896E-05

 Run end date and time (yyyy/mm/dd hh:mm:ss): 2024/05/29 16:54:26
 Elapsed run time:  0.024 Seconds

